Version 4
SHEET 1 880 680
WIRE 112 64 -32 64
WIRE 112 144 -32 144
FLAG -32 144 0
FLAG 0 0 0
SYMBOL res 96 48 R0
SYMATTR InstName R1
SYMBOL voltage -32 48 R0
SYMATTR InstName V1
