Version 4
SHEET 1 1196 680
WIRE 64 80 -32 80
WIRE 320 80 144 80
WIRE -160 224 -160 160
WIRE -128 224 -160 224
WIRE -32 224 -32 80
WIRE -32 224 -48 224
WIRE 16 224 -32 224
WIRE 320 240 320 80
WIRE 320 240 80 240
WIRE 16 256 -16 256
WIRE 320 256 320 240
WIRE -160 272 -160 224
WIRE -160 448 -160 352
FLAG -544 336 VBAT
FLAG -160 448 0
FLAG -544 416 0
FLAG -160 80 VBAT
FLAG -368 352 VREF
FLAG -16 256 VREF
FLAG -368 432 0
FLAG 48 208 0
FLAG 48 272 VBAT
SYMBOL res -32 208 R90
WINDOW 0 0 56 VBottom 2
WINDOW 3 32 56 VTop 2
SYMATTR InstName R2
SYMATTR Value 1k
SYMBOL res -176 64 R0
SYMATTR InstName R3
SYMATTR Value 16k
SYMBOL res -176 256 R0
SYMATTR InstName R4
SYMATTR Value 9.1k
SYMBOL res 160 64 R90
WINDOW 0 0 56 VBottom 2
WINDOW 3 32 56 VTop 2
SYMATTR InstName R1
SYMATTR Value 100k
SYMBOL voltage -544 320 R0
WINDOW 123 0 0 Left 0
WINDOW 39 0 0 Left 0
SYMATTR InstName V1
SYMATTR Value 1
SYMBOL voltage -368 336 R0
WINDOW 123 0 0 Left 0
WINDOW 39 0 0 Left 0
SYMATTR InstName V2
SYMATTR Value 1.21
SYMBOL OpAmps\\OP07 48 304 M180
SYMATTR InstName U1
TEXT 448 288 Left 2 !.lib opamp.sub
TEXT -488 -48 Left 2 !.dc V1 1 4 0.1
